22

C -1.7853759983062156 -0.24620567228252443 1.0671627732785376
C -1.399497845834936 0.08743264344546528 -0.3457038386417435
C -1.465239887868411 -1.1851187960530642 -1.153491250540332
C -0.10624594226904116 0.8134408564868141 -0.46380777187479066
C 1.0381370475059912 0.1769403804433365 0.2535904641163188
C 2.2631967248228513 0.9538112024076235 -0.04680476170241786
O 2.249875529569638 2.0350783509663772 -0.6811272048167235
O 3.493537135244834 0.48514606176366515 0.38220456845207706
N 1.2489183936595833 -1.2028336495932566 -0.12936669762254333
H -2.7940746470493507 -0.7494950736736061 1.0060144811452731
H -1.1078422307382223 -1.0060086829047397 1.4922915542500295
H -1.9293416065958184 0.624682490997236 1.7156383100499486
H -2.200910011871885 0.7559184231207781 -0.7486331864883734
H -2.561745148842171 -1.4460306027390295 -1.2250221148626408
H -0.9654447625920302 -2.010470339892411 -0.5948793900625626
H -1.1102383403305869 -1.0740744319601987 -2.180108617681625
H -0.2413063920318994 1.8325846795638048 -0.05227081616779376
H 0.13765048237849487 0.9279449212822695 -1.5310088179495132
H 0.867055370927553 0.2218538115848927 1.3329813829844646
H 4.3462730312911795 1.0162128468721408 0.3691675061064721
H 1.7778546037706633 -1.6455129684181249 0.6746562666097369
H 1.8579472518195397 -1.2954429610516787 -0.9649943915386834
