22

C -1.6404708672193216 -1.2586784796563601 0.44290881532394766
C -1.3131896975484225 -0.1984503364941006 -0.5639964044760107
C -1.8503692684584352 1.12583192457896 -0.13092292562440735
C 0.15960980588830487 -0.16932788918631408 -0.9029942673788967
C 1.0230481251646593 0.08763717155225821 0.3039370550142817
C 2.160696295383602 0.9592825368066339 -0.15694057495535443
O 2.454286975967218 2.0360655140150086 0.3884969654899424
O 2.8889249074340095 0.49201346345186747 -1.251553039924693
N 1.6547688799126792 -1.1566825274835166 0.753720657179573
H -1.0718377915716313 -2.2018437460408458 0.23595571626395725
H -2.724257775115217 -1.510058431713113 0.31735581798436485
H -1.4564602809502574 -0.9717990486000585 1.4781365217066298
H -1.842462813674199 -0.4762494423315121 -1.511744802834957
H -1.4368540283673168 1.9882129163415703 -0.6711738185057694
H -1.7800204859805113 1.2808892578971178 0.9750511745181494
H -2.9556329612150885 1.1192597289835033 -0.35233797643474907
H 0.3312419559305184 0.5651739479633217 -1.6972418645807368
H 0.4156244758503206 -1.1655153706143293 -1.312559061694824
H 0.49383641188249344 0.5120461005070241 1.1559340939302232
H 3.4101494730027655 1.190301209946311 -1.7941197125297959
H 2.439094528834642 -0.8508485376691401 1.3806380820643265
H 2.1315823179028452 -1.5389034264545962 -0.11023964694872793
